[General]
network = arppathbridgesunidireccional.src.topologies.latencyComparative.latencyComparativeGeneric

#semillas aleatorias:			
num-rngs = 1 #4			
seed-0-mt = 11			
#seed-1-mt = 4			
#seed-2-mt = 7			
#seed-3-mt = 19	
**.relayUnit.broadcastSeed = 11

#tiempo de simulación:			
sim-time-limit = 50s

#tiempo de expiración de caché en hosts:			
**.arp.cacheTimeout = 120s
#tiempo de bloqueo:			
**.relayUnit.blockingTime = 2s						
#tiempo de aprendizaje:			
**.relayUnit.agingTime = 120s			
			
#tiempo de proceso por switch:			
**.relayUnit.processingTime = 2us #exponential(2us)	- Si ponemos exponential, coge un valor fijo al principio y luego no varía tampoco, por cada MACRelay...

#capacidad de colas de transmisión (switches):			
**.txQueueLimit =  100000				
#capacidad de colas de cada host:			
**.frameCapacity = 100000			

# Queues
**.ppp[*].queueType = "DropTailQueue"
**.eth[*].queueType = "DropTailQueue"

#Numero de aplicaciones UDP por host
**.hostLeft[*].numUdpApps = 1

#Tipo de aplicacion y parametros de entrada (comienzo, intervalo de envio, puertos, longitud del mensaje, direccion de destino)
**.hostLeft[*].udpApp[*].typename = "UDPBasicAppNew"
**.hostLeft[*].udpApp[*].sendInterval = exponential(5ms) #uniform (30s, 120s)
**.hostLeft[*].udpApp[*].messageLength = 500B #exponential(${50B,300B,600B,900B},${0})     #1000B/5ms = 1,6Mbps

**.hostLeft[0].udpApp[*].startTime = 1s #host{13..25}.udpApp[*].startTime = exponential (4s)
**.hostLeft[0].udpApp[*].destAddresses = "hostRight[0]"
**.hostLeft[1].udpApp[*].startTime = 2s 
**.hostLeft[1].udpApp[*].destAddresses = "hostRight[1]"
**.hostLeft[2].udpApp[*].startTime = 3s 
**.hostLeft[2].udpApp[*].destAddresses = "hostRight[2]"
**.hostLeft[3].udpApp[*].startTime = 4s 
**.hostLeft[3].udpApp[*].destAddresses = "hostRight[3]"
**.hostLeft[4].udpApp[*].startTime = 5s 
**.hostLeft[4].udpApp[*].destAddresses = "hostRight[4]"
**.hostLeft[5].udpApp[*].startTime = 6s 
**.hostLeft[5].udpApp[*].destAddresses = "hostRight[5]"
**.hostLeft[6].udpApp[*].startTime = 7s 
**.hostLeft[6].udpApp[*].destAddresses = "hostRight[6]"
**.hostLeft[7].udpApp[*].startTime = 8s 
**.hostLeft[7].udpApp[*].destAddresses = "hostRight[7]"
**.hostLeft[8].udpApp[*].startTime = 9s 
**.hostLeft[8].udpApp[*].destAddresses = "hostRight[8]"
**.hostLeft[9].udpApp[*].startTime = 10s 
**.hostLeft[9].udpApp[*].destAddresses = "hostRight[9]"
**.hostLeft[10].udpApp[*].startTime = 11s 
**.hostLeft[10].udpApp[*].destAddresses = "hostRight[10]"
**.hostLeft[11].udpApp[*].startTime = 12s 
**.hostLeft[11].udpApp[*].destAddresses = "hostRight[11]"
**.hostLeft[12].udpApp[*].startTime = 13s 
**.hostLeft[12].udpApp[*].destAddresses = "hostRight[12]"
**.hostLeft[13].udpApp[*].startTime = 14s 
**.hostLeft[13].udpApp[*].destAddresses = "hostRight[13]"
**.hostLeft[14].udpApp[*].startTime = 15s 
**.hostLeft[14].udpApp[*].destAddresses = "hostRight[14]"
**.hostLeft[15].udpApp[*].startTime = 16s 
**.hostLeft[15].udpApp[*].destAddresses = "hostRight[15]"

**.udpApp[*].destPort = 1000
**.udpApp[*].localPort = 1000

#tamaño de la topología:
**.paths = 3
**.size = 2
**.sizeDiff = 0

#otros parámetros:			
**.vector-recording=false 		
**.scalar-recording=true			
total-stack = 2MiB			
**.relayUnit.addressTableSize = 300			
**.relayUnit.addressTableFile = ""			
**.relayUnit.numCPUs = 1					


