[General]
network = arppathbridgesunidireccional.src.topologies.Comp_AODV
record-eventlog = true

#debug-on-errors = true
tkenv-plugin-path = ../../../etc/plugins

# channel physical parameters
*.channelControl.carrierFrequency = 2.4GHz
*.channelControl.pMax = 2.0mW
*.channelControl.sat = -110dBm
*.channelControl.alpha = 2
*.channelControl.numChannels = 3

# nic settings
**.wlan*.bitrate = 2Mbps
**.mac.maxQueueSize = 14
**.mac.rtsThresholdBytes = 3000B
**.wlan[*].mac.retryLimit = 7
**.wlan[*].mac.cwMinData = 7

**.radio.transmitterPower = 1.8mW
**.radio.carrierFrequency = 2.4GHz
**.radio.thermalNoise = -110dBm
**.radio.sensitivity = -85dBm
**.radio.pathLossAlpha = 2
**.radio.snirThreshold = 4dB

*.host1.wlan[0].mac.address = "001111111111"
*.host2.wlan[0].mac.address = "002222222222"
*.host3.wlan[0].mac.address = "003333333333"

#tiempo de expiración de caché en hosts:			
#**.arp.cacheTimeout = 120s

#seed
**.relayUnit.broadcastSeed = 5

#tiempo de simulación:			
sim-time-limit = 6s

#statistics
#**.statsTime = 10000s

#tiempo de bloqueo:			
**.relayUnit.blockingTime = 1s			
#tiempo de aprendizaje:			
**.relayUnit.agingTime = 120s

**.relayUnit.addressTableSize = 100
**.relayUnit.bufferSize = 1MiB
**.relayUnit.highWatermark = 512KiB
**.relayUnit.pauseUnits = 300 
**.relayUnit.addressTableFile = ""
**.relayUnit.numCPUs = 1
**.relayUnit.processingTime = 2us

# Queues
**.ppp[*].queueType = "DropTailQueue"
**.ppp[*].queue.frameCapacity = 10
**.eth[*].queueType = "DropTailQueue"

# ping app (host[0] pinged by others)
*.host3.numPingApps = 0
*.host1.numPingApps = 2
*.host1.pingApp[*].destAddr = "host3"
**.pingApp[0].startTime = uniform(1s,5s)
**.pingApp[1].startTime = 5s+uniform(1s,5s)
**.pingApp[*].printPing = true

#Protocol version
**.protocolVersion = 2
#Repair version en este caso no implementamos reparacion
**.repairType = 0


