[General]
network = arppathbridgesunidireccional.src.topologies.Prueba_Wireless
#cmdenv-output-file = omnetpp.log
#debug-on-errors = true
tkenv-plugin-path = ../../../etc/plugins
**.constraintAreaMinX = 0m
**.constraintAreaMinY = 0m
**.constraintAreaMinZ = 0m
**.constraintAreaMaxX = 600m
**.constraintAreaMaxY = 400m
**.constraintAreaMaxZ = 0m

**.debug = true
**.coreDebug = false
**.channelNumber = 0

# channel physical parameters
*.channelControl.carrierFrequency = 2.4GHz
*.channelControl.pMax = 2.0mW
*.channelControl.sat = -110dBm
*.channelControl.alpha = 2

# nic settings
**.wlan*.bitrate = 2Mbps

**.mac.address = "auto"
**.mac.maxQueueSize = 14
**.mac.rtsThresholdBytes = 3000B
**.wlan[*].mac.retryLimit = 7
**.wlan[*].mac.cwMinData = 7
**.wlan[*].mac.cwMinBroadcast = 31

**.radio.transmitterPower = 2.0mW
**.radio.carrierFrequency = 2.4GHz
**.radio.thermalNoise = -110dBm
**.radio.sensitivity = -85dBm
**.radio.pathLossAlpha = 2
**.radio.snirThreshold = 4dB

#seed
**.relayUnit.broadcastSeed = 5

#tiempo de simulación:			
sim-time-limit = 6s

#statistics
#**.statsTime = 10000s

#tiempo de bloqueo:			
**.relayUnit.blockingTime = 1s			
#tiempo de aprendizaje:			
**.relayUnit.agingTime = 120s
#tiempo de Hello
**.relayUnit.helloTime = 0.7s

**.relayUnit.addressTableSize = 100
**.relayUnit.bufferSize = 1MiB
**.relayUnit.highWatermark = 512KiB
**.relayUnit.pauseUnits = 300 
**.relayUnit.addressTableFile = ""
**.relayUnit.numCPUs = 1
**.relayUnit.processingTime = 2us

# Queues
**.ppp[*].queueType = "DropTailQueue"
**.ppp[*].queue.frameCapacity = 10
**.eth[*].queueType = "DropTailQueue"

#Numero de aplicaciones UDP por host
**.host1.numUdpApps = 1

**.host1.udpApp[*].typename = "UDPBasicAppNew"
**.host1.udpApp[*].sendInterval = exponential(50ms) #uniform (30s, 120s)
**.host1.udpApp[*].messageLength = 500B #exponential(${50B,300B,600B,900B},${0})     #1000B/5ms = 1,6Mbps

**.host1.udpApp[*].startTime = 1s #host{13..25}.udpApp[*].startTime = exponential (4s)
**.host1.udpApp[*].destAddresses = "host2"

**.udpApp[*].destPort = 1000
**.udpApp[*].localPort = 1000

#Protocol version
**.protocolVersion = 2


