[General]
network = arppathbridgesunidireccional.src.topologies.PruebaAdHoc5
record-eventlog = true

#debug-on-errors = true
tkenv-plugin-path = ../../../etc/plugins

# channel physical parameters
*.channelControl.carrierFrequency = 2.4GHz
*.channelControl.pMax = 2.0mW
*.channelControl.sat = -110dBm
*.channelControl.alpha = 2
*.channelControl.numChannels = 3

# nic settings
**.wlan[*].mgmt.frameCapacity = 10
**.wlan[*].mac.maxQueueSize = 14
**.wlan[*].mac.rtsThresholdBytes = 3000B
**.wlan[*].mac.prioritizeMulticast = true
**.wlan[*].mac.retryLimit = 7
**.wlan[*].mac.cwMinData = 7
**.wlan[*].mac.cwMinMulticast = 31
**.wlan[*].radio.transmitterPower=1.8mW

**.wlan[*].radio.carrierFrequency=2.4GHz
**.wlan[*].radio.thermalNoise=-110dBm
**.wlan[*].radio.sensitivity=-85dBm
**.wlan[*].radio.pathLossAlpha=2
**.wlan[*].radio.snirThreshold = 4dB

#**.wlan[*].mac.basicBitrate = 54e6bps # 54Mbps
**.wlan[*].mac.slotTime = 9us # slot duration
**.wlan[*].mac.AIFSN = 2 # DIFS
#**.wlan[*].radio.phyOpMode = "g" # b/g 802.11b/802.11g-only
#**.wlan[*].radio.channelModel = "r" # r/a Rayleigh/awgn

#**.mac.opMode = "g"
#**.mac.bitrate = 54e6bps

*.host1.wlan[0].mac.address = "001111111111"
*.host2.wlan[0].mac.address = "002222222222"
*.host3.wlan[0].mac.address = "003333333333"
*.host4.wlan[0].mac.address = "004444444444"
*.host5.wlan[0].mac.address = "005555555555"

#seed
**.relayUnit.broadcastSeed = 5

#tiempo de simulación:			
sim-time-limit = 9s

#statistics
#**.statsTime = 10000s

#tiempo de bloqueo:			
**.relayUnit.blockingTime = 1s			
#tiempo de aprendizaje:			
**.relayUnit.agingTime = 120s

**.relayUnit.addressTableSize = 100
**.relayUnit.bufferSize = 1MiB
**.relayUnit.highWatermark = 512KiB
**.relayUnit.pauseUnits = 300 
**.relayUnit.addressTableFile = ""
**.relayUnit.numCPUs = 1
**.relayUnit.processingTime = 2us

# Queues
**.ppp[*].queueType = "DropTailQueue"
**.ppp[*].queue.frameCapacity = 10
**.eth[*].queueType = "DropTailQueue"

#Numero de aplicaciones UDP por host
**.host1.numUdpApps = 1

**.host1.udpApp[*].typename = "UDPBasicAppNew"
**.host1.udpApp[*].sendInterval = exponential(50ms) #uniform (30s, 120s)50ms #
**.host1.udpApp[*].messageLength = 500B #exponential(${50B,300B,600B,900B},${0})     #1000B/5ms = 1,6Mbps

**.host1.udpApp[*].startTime = 1s #host{13..25}.udpApp[*].startTime = exponential (4s)
**.host1.udpApp[*].destAddresses = "host5"

**.udpApp[*].destPort = 1000
**.udpApp[*].localPort = 1000

#Protocol version
**.protocolVersion = 2
#Repair version en este caso no implementamos reparacion
**.repairType = 0

# mobility
**.constraintAreaMinX = 0m
**.constraintAreaMinY = 0m
**.constraintAreaMinZ = 0m
**.constraintAreaMaxX = 600m
**.constraintAreaMaxY = 400m
**.constraintAreaMaxZ = 0m
**.debug = true

**.host3.mobilityType = "CircleMobility"
**.host3.mobility.cx = 200m
**.host3.mobility.cy = 200m
**.host3.mobility.r = 150m
**.host3.mobility.speed = 40mps
**.host3.mobility.startAngle = 0deg
#**.host3.mobilityType = "MassMobility"
#**.host3.mobility.changeInterval = truncnormal(2s, 0.5s)
#**.host3.mobility.changeAngleBy = normal(0deg, 30deg)
#**.host3.mobility.speed = truncnormal(20mps, 8mps)
#**.host3.mobility.updateInterval = 100ms
