[General]
network = arppathbridgesunidireccional.src.topologies.Prueba2
record-eventlog = true

#debug-on-errors = true
tkenv-plugin-path = ../../../etc/plugins

# mobility
**.constraintAreaMinX = 0m
**.constraintAreaMinY = 0m
**.constraintAreaMaxX = 500m
**.constraintAreaMaxY = 300m
**.mobility.typename = "StationaryMobility"
**.mobilityType = "StationaryMobility"
*.host1.mobility.initialX = 50m
*.host1.mobility.initialY = 100m
*.host2.mobility.initialX = 450m
*.host2.mobility.initialY = 100m
*.accessPoint1.mobility.initialX = 150m
*.accessPoint1.mobility.initialY = 250m
*.accessPoint2.mobility.initialX = 350m
*.accessPoint2.mobility.initialY = 250m
*.router*.mobility.initialX = 250m
*.router*.mobility.initialY = 200m

# global channel control
*.channelControl.numChannels = 2

# access point configuration
*.accessPoint1.wlan[0].mac.address = "001111111111"
*.accessPoint1.wlan[0].radio.channelNumber = 0
*.accessPoint2.wlan[0].mac.address = "002222222222"
*.accessPoint2.wlan[0].radio.channelNumber = 1

# use simplified ieee802.11 management (no association, authentication etc.)
*.host*.**.mgmtType = "Ieee80211MgmtSTA"
*.accessPoint*.**.mgmtType = "Ieee80211MgmtAP"

# global data rates
**.wlan*.bitrate = 11Mbps

# application level: host1 pings host2
**.numPingApps = 1
*.host1.pingApp[0].destAddr = "host2"
**.printPing = true

[Config SwitchedWlans]
description = "APs connected via an Ethernet switch"
*.useEthernetSwitching = true
*.useRouting = false
*.configurator.config = xmldoc("network_switched.xml")
#*.configurator.assignDisjunctSubnetAddresses = false

#seed
**.relayUnit.broadcastSeed = 5

#tiempo de simulación:			
sim-time-limit = 6s

#statistics
#**.statsTime = 10000s

#tiempo de bloqueo:			
**.relayUnit.blockingTime = 1s			
#tiempo de aprendizaje:			
**.relayUnit.agingTime = 120s

**.relayUnit.addressTableSize = 100
**.relayUnit.bufferSize = 1MiB
**.relayUnit.highWatermark = 512KiB
**.relayUnit.pauseUnits = 300 
**.relayUnit.addressTableFile = ""
**.relayUnit.numCPUs = 1
**.relayUnit.processingTime = 2us

# Queues
**.ppp[*].queueType = "DropTailQueue"
**.ppp[*].queue.frameCapacity = 10
**.eth[*].queueType = "DropTailQueue"

#Protocol version
**.protocolVersion = 2
#Repair version en este caso no implementamos reparacion
**.repairType = 0