[General]
network = arppathbridgesunidireccional.src.topologies.triangle_pruebaGenerator

#seed
**.relayUnit.broadcastSeed = 5

#tiempo de simulación:			
sim-time-limit = 5s

#tiempo de bloqueo:			
**.relayUnit.blockingTime = 1s			
#tiempo de aprendizaje:			
**.relayUnit.agingTime = 120s

**.relayUnit.addressTableSize = 100
**.relayUnit.bufferSize = 1MiB
**.relayUnit.highWatermark = 512KiB
**.relayUnit.pauseUnits = 300 
**.relayUnit.addressTableFile = ""
**.relayUnit.numCPUs = 1
**.relayUnit.processingTime = 2us

# Queues
**.ppp[*].queueType = "DropTailQueue"
**.ppp[*].queue.frameCapacity = 10
**.eth[*].queueType = "DropTailQueue"

**.host1.eth[*].mac.address = "00-00-00-00-00-01"
**.host2.eth[*].mac.address = "00-00-00-00-00-02"
**.host3.eth[*].mac.address = "00-00-00-00-00-03"
**.switchA.relayUnit.address = "00-00-00-00-01-0A"
**.switchB.relayUnit.address = "00-00-00-00-01-0B"
**.switchC.relayUnit.address = "00-00-00-00-01-0C"

# Number of UDP apps (1) and which type of UDP traffic, for the UDPFlowGenerator					
**.generatorFreq = exponential(0.8s)
**.stopTime = 5s
#**.excludedAddresses = "host1"
#**.hostsWeights = "host3 99"
**.routeHosts = "host1 host2 host2 host1 host1 host3 host3 host1 host2 host3 host3 host2"
**.routeSwitches = "switchA switchB switchB switchA switchB switchC switchC switchB switchA switchC switchC switchA"

**.scalar-recording=true

#Repair
**.repairType = 1
# con las 2 siguientes líneas se cae el enlace entre A y B entre los segundos 2 y 3, y probamos v1:PathRequest+PathReply; v2:PathFail+PathRequest (desde host1) y PathFail+PathRequest (desde host2)
**.switchA.**.portLinkDown = "1:1-2" 
**.switchB.**.portLinkDown = "1:1-2" 
